Version 4
SHEET 1 920 680
WIRE 96 48 0 48
WIRE 128 48 96 48
WIRE 272 48 224 48
WIRE 320 48 272 48
WIRE 400 48 320 48
WIRE 528 48 480 48
WIRE 640 48 528 48
WIRE 0 96 0 48
WIRE 96 112 96 48
WIRE 528 112 528 48
WIRE 640 112 640 48
WIRE 320 128 320 48
WIRE 208 176 208 96
WIRE 272 256 272 48
WIRE 272 256 208 256
WIRE 0 288 0 176
WIRE 96 288 96 176
WIRE 96 288 0 288
WIRE 320 288 320 192
WIRE 320 288 96 288
WIRE 528 288 528 176
WIRE 528 288 320 288
WIRE 640 288 640 192
WIRE 640 288 528 288
WIRE 320 320 320 288
FLAG 320 320 0
SYMBOL voltage 0 80 R0
WINDOW 123 0 0 Left 0
WINDOW 39 0 0 Left 0
SYMATTR InstName V1
SYMATTR Value 12
SYMBOL voltage 208 160 R0
WINDOW 123 0 0 Left 0
WINDOW 39 0 0 Left 0
SYMATTR InstName V2
SYMATTR Value PULSE(0 10 0 0.1p 0.1p 5u 10u)
SYMBOL ind 384 64 R270
WINDOW 0 32 56 VTop 2
WINDOW 3 5 56 VBottom 2
SYMATTR InstName L
SYMATTR Value 20µ
SYMBOL cap 512 112 R0
SYMATTR InstName C1
SYMATTR Value 150µ
SYMBOL res 624 96 R0
SYMATTR InstName R1
SYMATTR Value 5
SYMBOL nmos 128 96 R270
SYMATTR InstName M1
SYMATTR Value Si7336ADP
SYMBOL schottky 336 192 R180
WINDOW 0 24 64 Left 2
WINDOW 3 24 0 Left 2
SYMATTR InstName D1
SYMATTR Value MBRS360
SYMATTR Description Diode
SYMATTR Type diode
SYMBOL cap 80 112 R0
SYMATTR InstName C2
SYMATTR Value 5µ
TEXT -32 344 Left 2 !.tran 50m
